28
peptide_to_xyz
H 0.773 1.866 -0.001
H 2.642 1.116 1.676
H 3.974 1.323 0.547
H 3.486 -1.021 0.783
N 3.069 -0.697 -1.21
H 4.063 -0.724 -1.374
H 2.693 0.052 -1.775
S 2.006 2.221 -0.374
O 0.553789417383 -0.240465559962 1.04856636765
C 2.934 1.023 0.638
C 2.786 -0.432 0.188
C 1.414 -0.975 0.584
H 2.02458190332 -2.78511408538 0.014124805546
H -0.178964864204 -2.60834079521 1.88979584473
H 0.337329333962 -4.05049983278 1.00627130555
O -1.54856409225 -3.88434436193 -0.593711927009
N 1.25432163051 -2.29361104417 0.430465858781
C 0.0901889185414 -3.00190438572 0.9122755424
C -1.11804451423 -2.91169627586 -0.0156266447184
C -2.75333667035 -1.41221682658 -0.984052142802
C -2.3437236551 -0.590118541433 -2.18018490604
O -3.37821477287 -0.390752568812 -2.99765988193
H -3.06490778724 0.14347486195 -3.73602685368
H -1.1694397395 -0.916025799201 0.335504213247
H -3.56535051183 -0.887139983212 -0.483714427066
H -3.14942316458 -2.35987434482 -1.33346553294
O -1.25252392288 -0.144351525621 -2.39077197122
N -1.67252499127 -1.67978388139 -0.0907548879297
