51
ala.pdb
N          7.27300       -0.78100        1.14900
C          7.16200       -0.31400       -0.22500
C          7.35100        1.20000       -0.35900
O          8.07500        1.59100       -1.20800
C          5.74600       -0.68900       -0.71900
H          7.90400       -0.82400       -0.84000
H          5.61900       -0.35600       -1.74900
H          5.00000       -0.20600       -0.08800
H          5.61800       -1.77000       -0.66900
H          7.13300       -1.84100        1.17800
H          6.52500       -0.30600        1.74900
H          8.24300       -0.54000        1.53100
N          6.72800        2.04900        0.44500
C          6.84300        3.49900        0.39500
C          8.28700        3.99000        0.53800
O          8.66800        4.80800       -0.22600
C          6.01400        4.06400        1.61000
C          5.99800        5.60800        1.58300
C          5.23800        6.13600        2.81300
N          5.13800        7.58300        2.74900
C          4.58800        8.26300        3.69300
N          4.05300        7.63700        4.86300
N          4.50300        9.67600        3.58200
H          6.06000        1.77100        1.23400
H          6.42100        3.86900       -0.53900
H          4.99000        3.69400        1.54900
H          6.46800        3.72600        2.54200
H          7.02200        5.98200        1.60100
H          5.50200        5.95000        0.67500
H          4.23700        5.70500        2.83000
H          5.77300        5.85000        3.71800
H          5.53100        8.09700        1.89700
H          4.10400        6.57300        4.97200
H          3.60200        8.23200        5.62900
H          4.89600       10.16900        2.71700
H          4.04700       10.24800        4.36300
N          9.08800        3.51700        1.48100
C         10.47100        3.92000        1.69500
C         11.35000        3.72000        0.45700
O         10.82100        3.25700       -0.55200
C         11.02000        2.98600        2.83100
C         10.27500        3.14000        4.13900
O          9.88900        2.13400        4.74900
N         10.06100        4.40700        4.69700
O         12.53600        4.03500        0.54000
H          8.81600        2.77800        2.20500
H         10.51000        4.96100        2.01600
H         10.93200        1.95100        2.50100
H         12.07000        3.22700        2.99900
H         10.42600        5.28000        4.19800
H          9.53200        4.50200        5.62300
