32
peptide_to_xyz
N         -5.03100       17.21300       -5.63100
C         -5.16700       17.78400       -6.96300
C         -3.98200       18.67000       -7.35800
O         -3.10800       18.80300       -6.57200
C         -6.45700       18.63500       -6.98900
S         -6.65500       19.37000       -8.63500
H         -4.11100       17.54200       -5.19400
H         -5.26100       16.97400       -7.68700
H         -7.31600       18.00200       -6.76600
H         -6.38500       19.42700       -6.24200
H         -5.59800       20.14700       -8.90900
N         -1.11300       23.54300      -13.90300
C         -0.03300       24.40200      -14.36600
C         -0.26900       24.95100      -15.77700
O         -1.26500       24.63700      -16.32900
H         -1.86400       23.47300      -14.66100
H          0.06400       25.24200      -13.67800
H          0.89300       23.82600      -14.36900
N         -1.11300       23.54300      -13.90300
C         -0.03300       24.40200      -14.36600
C         -0.26900       24.95100      -15.77700
O         -1.26500       24.63700      -16.32900
H         -1.86400       23.47300      -14.66100
H          0.06400       25.24200      -13.67800
H          0.89300       23.82600      -14.36900
N         -1.11300       23.54300      -13.90300
C         -0.03300       24.40200      -14.36600
C         -0.26900       24.95100      -15.77700
O         -1.26500       24.63700      -16.32900
H         -1.86400       23.47300      -14.66100
H          0.06400       25.24200      -13.67800
H          0.89300       23.82600      -14.36900
