33
1.out
H         -3.74650       -2.04618        0.62561
N         -3.96454       -1.65737       -0.26819
H         -4.19409       -2.33872       -0.96346
C         -3.20812       -0.59293       -0.67951
N         -3.34620       -0.29036       -2.01285
H         -2.92023        0.57529       -2.28057
H         -4.25886       -0.42279       -2.40215
N         -2.42898        0.09018        0.06012
C         -2.21432       -0.30228        1.44026
H         -3.14904       -0.23387        1.99955
H         -1.86997       -1.33841        1.50722
C         -1.18808        0.60329        2.10927
H         -1.46907        1.63798        1.93056
H         -1.25700        0.45286        3.18392
C          0.26561        0.35156        1.71325
H          0.54851       -0.64785        2.03154
H          0.90501        1.04852        2.24986
C          0.63342        0.43074        0.21927
H          0.03193       -0.28514       -0.32812
C          0.40403        1.82054       -0.36159
O         -0.84594        2.13024       -0.62968
N          2.01869        0.08744        0.02433
H          2.68940        0.82426       -0.10156
C          2.42908       -1.18342       -0.05996
O          1.30517        2.58388       -0.54800
C          3.91727       -1.37935       -0.29411
O          1.69356       -2.14265        0.05525
N          4.61137       -0.16675       -0.68118
H          4.00876       -2.20199       -1.00048
H          4.32254       -1.73436        0.64890
H          4.56413        0.00018       -1.67046
H          5.57728       -0.18194       -0.41283
H         -1.47070        1.38950       -0.41500
