48
ser.pdb
N          7.90700        0.34900        1.16400
C          7.79600        0.81600       -0.21000
C          7.98500        2.33000       -0.34400
O          8.70900        2.72100       -1.19300
C          6.33400        0.47200       -0.66400
C          6.03800       -1.01300       -0.64400
O          5.00000       -1.42600       -0.11300
N          6.90200       -1.92400       -1.26700
H          8.51500        0.29300       -0.84100
H          5.63600        0.97300        0.00600
H          6.19100        0.83900       -1.68000
H          7.78200       -1.57200       -1.76400
H          6.68200       -2.97100       -1.24500
H          7.76700       -0.71200        1.19300
H          7.16000        0.82400        1.76400
H          8.87700        0.59000        1.54600
N          7.36200        3.17800        0.46000
C          7.47700        4.62900        0.41000
C          8.92100        5.11900        0.55300
O          9.30200        5.93700       -0.21100
C          6.60700        5.13800        1.58200
O          7.15200        4.63100        2.79100
H          6.69500        2.90000        1.24900
H          7.06400        4.99200       -0.53000
H          6.61500        6.22700        1.60200
C         15.05600        3.97600        4.56800
C         14.84300        6.15000        3.56100
C         15.58500        5.23200        4.29400
O         13.17100        5.16400        0.55500
H          9.45000        3.90700        2.22000
H         11.13400        6.09800        2.00800
H         10.95700        4.24100        3.73100
H         11.68000        3.12100        2.55200
H         13.37500        2.65300        4.32900
H         12.99400        6.53200        2.53000
H         15.63600        3.25400        5.14300
H         15.25400        7.13600        3.34400
H         16.57900        5.49700        4.65400
H          5.58300        4.78400        1.46200
H          7.14500        3.58200        2.76600
N          9.72300        4.64700        1.49600
C         11.10500        5.05000        1.71000
C         11.98400        4.85000        0.47200
O         11.45500        4.38600       -0.53700
C         11.64700        4.15600        2.89100
C         13.04200        4.55100        3.37100
C         13.78700        3.63800        4.10900
C         13.57500        5.80900        3.10300