12
ala.pdb
N          7.32600       -0.78300        1.19900
C          7.11300       -0.36700       -0.19100
C          7.19900        1.12300       -0.30500
O          7.64800        1.85900        0.74400
C          5.74300       -0.82700       -0.71200
O          6.82600        1.73700       -1.45500
H          7.87400       -0.81800       -0.84300
H          5.62400       -0.50600       -1.75800
H          4.95000       -0.37700       -0.09800
H          6.60100       -0.36100        1.79600
H          8.25500       -0.46800        1.51200
H          6.87900        2.68900       -1.52800
