32
peptide_to_xyz
N 7.599 10.544 -8.419
C 7.486 11.012 -9.793
C 7.677 12.525 -9.927
O 7.887 13.143 -8.941
C 6.077 10.64 -10.309
S 5.896 11.216 -12.019
H 7.795 11.375 -7.774
H 8.233 10.504 -10.403
H 5.949 9.558 -10.273
H 5.322 11.117 -9.682
H 6.054 12.546 -12.063
N 7.771 18.792 -15.888
C 7.938 20.22 -16.115
C 7.802 20.611 -17.59
O 7.582 19.75 -18.369
H 7.582 18.302 -16.82
H 7.18 20.755 -15.542
H 8.93 20.513 -15.769
N 7.771 18.792 -15.888
C 7.938 20.22 -16.115
C 7.802 20.611 -17.59
O 7.582 19.75 -18.369
H 7.582 18.302 -16.82
H 7.18 20.755 -15.542
H 8.93 20.513 -15.769
N 7.771 18.792 -15.888
C 7.938 20.22 -16.115
C 7.802 20.611 -17.59
O 7.582 19.75 -18.369
H 7.582 18.302 -16.82
H 7.18 20.755 -15.542
H 8.93 20.513 -15.769
