326
peptide_to_xyz
N 7.273 -0.781 1.149
C 7.162 -0.314 -0.225
C 7.351 1.2 -0.359
O 7.56 1.818 0.627
C 5.746 -0.689 -0.719
H 7.904 -0.824 -0.84
H 5.619 -0.356 -1.749
H 5.0 -0.206 -0.088
H 5.618 -1.77 -0.669
H 7.133 -1.841 1.178
H 6.525 -0.306 1.749
H 8.243 -0.54 1.531
N 7.283 1.804 -1.537
C 7.449 3.233 -1.764
C 7.315 3.623 -3.238
O 7.098 2.762 -4.018
C 8.906 3.602 -1.291
C 9.141 5.125 -1.405
C 10.589 5.452 -1.0
N 10.794 6.891 -1.015
C 11.943 7.41 -0.76
N 13.087 6.606 -0.459
N 12.093 8.822 -0.777
H 7.097 1.314 -2.469
H 6.72 3.785 -1.17
H 9.035 3.296 -0.253
H 9.629 3.08 -1.918
H 8.971 5.442 -2.434
H 8.451 5.649 -0.744
H 10.778 5.071 0.004
H 11.276 4.982 -1.703
H 9.97 7.533 -1.244
H 13.001 5.539 -0.441
H 14.028 7.07 -0.252
H 11.253 9.447 -1.0
H 13.045 9.262 -0.566
N 7.436 4.882 -3.635
C 7.324 5.349 -5.009
C 7.514 6.863 -5.143
O 7.723 7.48 -4.157
C 5.861 5.006 -5.462
C 5.565 3.521 -5.442
O 4.527 3.108 -4.91
N 6.428 2.61 -6.065
H 7.632 5.713 -2.99
H 8.042 4.826 -5.64
H 5.164 5.507 -4.791
H 5.718 5.373 -6.478
H 7.308 2.961 -6.563
H 6.207 1.563 -6.043
N 7.446 7.467 -6.32
C 7.612 8.895 -6.547
C 7.477 9.286 -8.022
O 7.26 8.424 -8.802
C 9.101 9.163 -6.035
C 9.595 10.601 -6.171
O 10.687 10.917 -5.672
O 8.875 11.557 -6.881
H 7.259 6.976 -7.253
H 6.9 9.457 -5.943
H 9.146 8.89 -4.98
H 9.772 8.522 -6.606
N 7.599 10.544 -8.419
C 7.486 11.012 -9.793
C 7.677 12.525 -9.927
O 7.887 13.143 -8.941
C 6.077 10.64 -10.309
S 5.896 11.216 -12.019
H 7.795 11.375 -7.774
H 8.233 10.504 -10.403
H 5.949 9.558 -10.273
H 5.322 11.117 -9.682
H 6.054 12.546 -12.063
N 7.608 13.13 -11.104
C 7.775 14.558 -11.331
C 7.639 14.948 -12.806
O 7.421 14.087 -13.585
C 9.21 14.919 -10.889
C 9.42 16.427 -11.093
C 10.819 16.91 -10.982
O 11.209 17.968 -11.489
N 11.749 15.966 -10.172
H 7.421 12.639 -12.036
H 7.053 15.114 -10.734
H 9.344 14.669 -9.837
H 9.93 14.364 -11.49
H 9.056 16.683 -12.088
H 8.826 16.95 -10.343
H 11.359 15.062 -9.754
H 12.778 16.221 -10.032
N 7.761 16.207 -13.202
C 7.648 16.674 -14.576
C 7.839 18.188 -14.711
O 8.051 18.805 -13.725
C 6.275 16.237 -15.184
C 5.094 16.866 -14.434
C 3.829 16.319 -15.028
O 2.736 16.542 -14.497
O 3.89 15.536 -16.174
H 7.959 17.037 -12.558
H 8.434 16.19 -15.156
H 6.236 16.549 -16.228
H 6.192 15.152 -15.125
H 5.148 16.61 -13.376
H 5.118 17.95 -14.547
N 7.771 18.792 -15.888
C 7.938 20.22 -16.115
C 7.802 20.611 -17.59
O 7.582 19.75 -18.369
H 7.582 18.302 -16.82
H 7.18 20.755 -15.542
H 8.93 20.513 -15.769
N 7.924 21.869 -17.986
C 7.81 22.337 -19.36
C 8.002 23.85 -19.494
O 8.215 24.468 -18.509
C 6.422 22.149 -20.059
C 5.988 20.732 -20.307
N 4.931 20.413 -21.046
C 6.605 19.577 -19.854
C 4.854 19.086 -21.074
N 5.861 18.599 -20.356
H 8.123 22.7 -17.341
H 8.571 21.837 -19.96
H 5.668 22.622 -19.43
H 6.464 22.657 -21.022
H 4.266 21.098 -21.528
H 7.495 19.492 -19.23
H 4.097 18.5 -21.595
N 7.933 24.455 -20.671
C 8.101 25.883 -20.899
C 7.964 26.274 -22.373
O 7.744 25.412 -23.153
C 9.521 26.274 -20.396
C 9.672 25.897 -18.908
C 9.738 27.791 -20.561
C 11.084 26.261 -18.414
H 7.744 23.964 -21.604
H 7.357 26.425 -20.317
H 10.269 25.738 -20.98
H 8.932 26.442 -18.321
H 9.512 24.825 -18.789
H 10.734 28.057 -20.207
H 8.99 28.331 -19.98
H 9.643 28.059 -21.614
H 11.183 25.992 -17.363
H 11.246 27.333 -18.531
H 11.825 25.717 -18.999
N 8.087 27.532 -22.77
C 7.973 27.999 -24.144
C 8.165 29.513 -24.278
O 8.379 30.13 -23.293
C 6.53 27.67 -24.615
C 6.223 26.16 -24.502
C 4.765 25.912 -24.925
C 7.16 25.34 -25.41
H 8.286 28.362 -22.125
H 8.695 27.478 -24.772
H 5.822 28.222 -23.998
H 6.42 27.976 -25.656
H 6.356 25.843 -23.467
H 4.54 24.849 -24.847
H 4.625 26.239 -25.955
H 4.097 26.473 -24.272
H 6.925 24.28 -25.312
H 8.195 25.51 -25.113
H 7.024 25.648 -26.446
N 8.096 30.117 -25.455
C 8.265 31.545 -25.683
C 8.126 31.936 -27.157
O 7.905 31.075 -27.936
C 9.701 31.922 -25.224
C 9.927 33.435 -25.415
C 11.363 33.807 -25.015
C 11.578 35.316 -25.244
N 12.948 35.683 -24.857
H 7.906 29.627 -26.387
H 7.536 32.098 -25.089
H 9.824 31.667 -24.171
H 10.428 31.369 -25.819
H 9.766 33.694 -26.462
H 9.224 33.986 -24.791
H 11.52 33.572 -23.962
H 12.069 33.242 -25.623
H 11.423 35.549 -26.297
H 10.867 35.88 -24.639
H 13.096 36.731 -25.016
H 13.647 35.131 -25.45
H 13.101 35.455 -23.823
N 8.25 33.194 -27.554
C 8.135 33.662 -28.927
C 8.328 35.175 -29.062
O 8.543 35.792 -28.077
C 6.718 33.38 -29.469
C 6.631 32.034 -30.189
S 4.928 31.803 -30.751
C 4.779 30.214 -31.604
H 8.45 34.025 -26.909
H 8.869 33.147 -29.547
H 6.018 33.378 -28.635
H 6.447 34.17 -30.17
H 7.305 32.029 -31.045
H 6.905 31.231 -29.505
H 3.752 30.077 -31.941
H 5.047 29.408 -30.92
H 5.449 30.198 -32.463
N 8.258 35.78 -30.239
C 8.428 37.208 -30.466
C 8.289 37.599 -31.941
O 8.067 36.738 -32.72
C 9.878 37.565 -29.961
C 10.18 39.063 -29.968
C 11.504 39.486 -29.928
C 9.16 40.01 -29.992
C 11.807 40.843 -29.922
C 9.46 41.368 -29.986
C 10.785 41.786 -29.951
H 8.067 35.29 -31.171
H 7.694 37.757 -29.877
H 9.987 37.197 -28.94
H 10.6 37.066 -30.607
H 12.308 38.751 -29.902
H 8.12 39.686 -30.017
H 12.847 41.168 -29.895
H 8.656 42.104 -30.009
H 11.022 42.849 -29.947
N 8.413 38.857 -32.337
C 8.297 39.325 -33.711
C 9.48 38.904 -34.588
O 10.338 38.266 -34.084
H 7.374 38.939 -34.145
C 8.279 40.853 -33.496
C 9.409 40.98 -32.496
C 8.948 39.894 -31.477
H 8.489 41.396 -34.417
H 7.33 41.193 -33.081
H 10.376 40.742 -32.939
H 9.448 41.972 -32.047
H 9.789 39.522 -30.891
H 8.182 40.283 -30.806
N 9.547 39.239 -35.867
C 10.627 38.887 -36.778
C 10.413 39.424 -38.196
O 9.431 40.048 -38.406
C 10.661 37.342 -36.776
O 9.415 36.871 -37.267
H 8.812 39.814 -36.391
H 11.569 39.269 -36.386
H 11.468 36.989 -37.418
H 10.818 36.977 -35.761
H 8.641 37.216 -36.647
N 11.293 39.201 -39.161
C 11.178 39.67 -40.534
C 12.361 39.248 -41.411
O 13.219 38.609 -40.907
C 11.118 41.195 -40.421
O 10.029 41.578 -39.573
C 10.927 41.808 -41.82
H 12.202 38.647 -39.047
H 10.25 39.299 -40.97
H 12.051 41.561 -39.994
H 9.128 41.224 -39.979
H 10.884 42.894 -41.739
H 9.998 41.439 -42.255
H 11.764 41.524 -42.459
N 12.428 39.584 -42.691
C 13.508 39.231 -43.601
C 13.294 39.769 -45.019
O 12.312 40.393 -45.228
C 13.657 37.708 -43.827
C 14.002 36.927 -42.597
C 13.128 36.141 -41.849
C 15.247 36.82 -42.005
N 13.832 35.606 -40.847
C 15.1 35.992 -40.922
C 16.467 37.377 -42.354
C 16.165 35.663 -40.102
C 17.553 37.054 -41.542
C 17.405 36.211 -40.434
H 11.693 40.16 -43.214
H 14.446 39.625 -43.21
H 12.712 37.328 -44.217
H 14.445 37.549 -44.564
H 12.067 35.991 -42.045
H 13.431 34.96 -40.094
H 16.572 38.034 -43.218
H 16.042 35.008 -39.24
H 18.536 37.464 -41.774
H 18.274 35.979 -39.818
N 14.174 39.546 -45.984
C 14.059 40.015 -47.357
C 15.242 39.593 -48.234
O 16.099 38.953 -47.731
C 13.873 41.581 -47.172
C 13.373 42.401 -48.341
C 13.213 41.885 -49.623
C 13.009 43.717 -48.08
C 12.692 42.688 -50.634
C 12.481 44.517 -49.084
C 12.319 44.001 -50.362
O 11.775 44.8 -51.36
H 15.082 38.991 -45.871
H 13.145 39.606 -47.788
H 13.165 41.724 -46.355
H 14.843 41.987 -46.888
H 13.496 40.854 -49.835
H 13.14 44.124 -47.077
H 12.575 42.287 -51.641
H 12.195 45.547 -48.869
H 12.464 44.895 -52.147
N 15.309 39.929 -49.514
C 16.388 39.576 -50.425
C 16.175 40.114 -51.842
O 15.194 40.739 -52.051
C 16.413 38.006 -50.542
C 17.55 37.516 -51.463
C 16.613 37.366 -49.163
H 14.575 40.505 -50.037
H 17.34 39.934 -50.03
H 15.461 37.67 -50.951
H 17.532 36.428 -51.516
H 18.51 37.844 -51.062
H 17.414 37.931 -52.462
H 16.627 36.281 -49.265
H 15.794 37.657 -48.504
H 17.558 37.703 -48.738
