24
    0 1
    H	20.800000 7.440000 7.800000
    C	20.040000 8.160000 8.090000
    H	19.070000 7.680000 7.980000
    H	20.260000 9.070000 7.530000
    C	20.140000 8.560000 9.560000
    O	19.460000 8.000000 10.420000
    N	21.140000 9.340000 9.970000
    H	21.750000 9.750000 9.290000
    C	21.270000 9.810000 11.340000
    H	21.270000 8.930000 11.970000
    C	22.660000 10.410000 11.460000
    H	22.650000 11.320000 10.860000
    H	23.360000 9.780000 10.910000
    C	23.190000 10.500000 12.890000
    O	23.550000 9.470000 13.500000
    O	23.210000 11.590000 13.500000
    C	20.250000 10.840000 11.830000
    O	19.880000 10.750000 13.000000
    N	19.730000 11.680000 10.930000
    H	20.180000 11.800000 10.030000
    C	18.830000 12.770000 11.240000
    H	17.970000 12.370000 11.760000
    H	19.330000 13.560000 11.810000
    H	18.410000 13.130000 10.300000

    